LTspice 24.1.9 for Windows
Circuit: G:\LTspiceFile\ElectronicTechnologyExperiments\Experiment3_1_1.net
Start Time: Sun Sep 28 10:38:49 2025
solver = Normal
Maximum thread count: 12
tnom = 27
temp = 27
method = trap
Direct Newton iteration for .op point succeeded.
Total elapsed time: 0.156 seconds.

Files loaded:
G:\LTspiceFile\ElectronicTechnologyExperiments\Experiment3_1_1.net
C:\Users\34261\AppData\Local\LTspice\lib\cmp\standard.bjt

