LTspice 24.1.9 for Windows
Circuit: G:\LTspiceFile\ElectronicTechnologyExperiments\Experiment1_NPN_5V.net
Start Time: Sun Sep 14 19:37:22 2025
solver = Normal
Maximum thread count: 12
tnom = 27
temp = 27
method = trap
.step 
Total elapsed time: 0.135 seconds.

Files loaded:
G:\LTspiceFile\ElectronicTechnologyExperiments\Experiment1_NPN_5V.net
C:\Users\34261\AppData\Local\LTspice\lib\cmp\standard.bjt

