LTspice 24.1.9 for Windows
Circuit: G:\LTspiceFile\ElectronicTechnologyExperiments\Experiment2_1_1.net
Start Time: Fri Sep 26 10:05:58 2025
solver = Normal
Maximum thread count: 12
tnom = 27
temp = 27
method = trap
Direct Newton iteration for .op point succeeded.
.step rp=14000
.step rp=14500
.step rp=15000
Total elapsed time: 0.295 seconds.

Files loaded:
G:\LTspiceFile\ElectronicTechnologyExperiments\Experiment2_1_1.net
C:\Users\34261\AppData\Local\LTspice\lib\cmp\standard.bjt

