LTspice 24.1.9 for Windows
Circuit: G:\LTspiceFile\ElectronicTechnologyExperiments\Experiment2_4_2.net
Start Time: Sat Sep 27 20:19:00 2025
solver = Normal
Maximum thread count: 12
tnom = 27
temp = 27
method = trap
Direct Newton iteration for .op point succeeded.
Total elapsed time: 0.086 seconds.

Files loaded:
G:\LTspiceFile\ElectronicTechnologyExperiments\Experiment2_4_2.net
C:\Users\34261\AppData\Local\LTspice\lib\cmp\standard.bjt

