LTspice 24.1.9 for Windows
Circuit: G:\LTspiceFile\ElectronicTechnologyExperiments\Experiment2_3_1.net
Start Time: Sat Sep 27 20:12:10 2025
solver = Normal
Maximum thread count: 12
tnom = 27
temp = 27
method = trap
G:\LTspiceFile\ElectronicTechnologyExperiments\Experiment2_3_1.net(16): WARNING: Specified period is not longer than the sum of Trise, Tfall, and Ton. Increasing period to 0.001.

V2 N003 0 PULSE(-1 1 0 0.5m 0.5m 0 0 10)
^^^^^^^^^^^^^^^^^^^^^^^^^^^^^^^^^^^^^^^^
Direct Newton iteration for .op point succeeded.
Total elapsed time: 0.070 seconds.

Files loaded:
G:\LTspiceFile\ElectronicTechnologyExperiments\Experiment2_3_1.net
C:\Users\34261\AppData\Local\LTspice\lib\cmp\standard.bjt

