LTspice 24.1.9 for Windows
Circuit: G:\LTspiceFile\ElectronicTechnologyExperiments\2\1\ProportionalSummingCircuit.net
Start Time: Mon Oct 13 19:11:36 2025
solver = Normal
Maximum thread count: 12
tnom = 27
temp = 27
method = trap
G:\LTspiceFile\ElectronicTechnologyExperiments\2\1\ProportionalSummingCircuit.net(4): Missing value, assuming 0V @ DC.

Vin1 IN 0
^^^^^^^^^
.step 
Total elapsed time: 0.134 seconds.

Files loaded:
G:\LTspiceFile\ElectronicTechnologyExperiments\2\1\ProportionalSummingCircuit.net
C:\Users\34261\AppData\Local\LTspice\lib\sub\ADI1.lib

