LTspice 24.1.9 for Windows
Circuit: G:\LTspiceFile\ElectronicTechnologyExperiments\2\1\SourceWaveFit.net
Start Time: Thu Oct 16 08:56:40 2025
solver = Normal
Maximum thread count: 12
tnom = 27
temp = 27
method = trap
Direct Newton iteration for .op point succeeded.
Total elapsed time: 0.119 seconds.

Files loaded:
G:\LTspiceFile\ElectronicTechnologyExperiments\2\1\SourceWaveFit.net
C:\Users\34261\AppData\Local\LTspice\lib\sub\ADI1.lib

