LTspice 24.1.9 for Windows
Circuit: G:\LTspiceFile\ElectronicTechnologyExperiments\2\1\TwoPointInvertingSummingAmplifier.net
Start Time: Thu Oct 16 08:19:33 2025
solver = Normal
Maximum thread count: 12
tnom = 27
temp = 27
method = trap
G:\LTspiceFile\ElectronicTechnologyExperiments\2\1\TwoPointInvertingSummingAmplifier.net(3): Missing value, assuming 0V @ DC.

Vin1 IN1 0
^^^^^^^^^^
.step Vin2=-1 
.step Vin2=0 
.step Vin2=1 
Total elapsed time: 0.132 seconds.

Files loaded:
G:\LTspiceFile\ElectronicTechnologyExperiments\2\1\TwoPointInvertingSummingAmplifier.net
C:\Users\34261\AppData\Local\LTspice\lib\sub\ADI1.lib

