LTspice 24.1.9 for Windows
Circuit: G:\LTspiceFile\ElectronicTechnologyExperiments\3\DifferentialAmplifierCircuit_dif_com_input.net
Start Time: Sat Oct 25 10:48:41 2025
solver = Normal
Maximum thread count: 12
tnom = 27
temp = 27
method = trap
Direct Newton iteration for .op point succeeded.
.step run=1
.step run=2
.step run=3
.step run=4
Total elapsed time: 0.426 seconds.

Files loaded:
G:\LTspiceFile\ElectronicTechnologyExperiments\3\DifferentialAmplifierCircuit_dif_com_input.net
C:\Users\34261\AppData\Local\LTspice\lib\cmp\standard.bjt
C:\Users\34261\AppData\Local\LTspice\lib\sub\potentiometer.lib


Measurement: vc1_run1
  step	AVG(if(run==1, V(Vc1), 1/0))	FROM	TO
     1	3.97580289841	0	0.001
     2	1e+200	0	0.001
     3	1e+200	0	0.001
     4	1e+200	0	0.001

Measurement: vc2_run1
  step	AVG(if(run==1, V(Vc2), 1/0))	FROM	TO
     1	8.56344509125	0	0.001
     2	1e+200	0	0.001
     3	1e+200	0	0.001
     4	1e+200	0	0.001

Measurement: vod_run1
  step	AVG(if(run==1, (V(Vc1) - V(Vc2)), 1/0))	FROM	TO
     1	-4.58764219284	0	0.001
     2	1e+200	0	0.001
     3	1e+200	0	0.001
     4	1e+200	0	0.001

Measurement: vc1_run2
  step	AVG(if(run==2, V(Vc1), 1/0))	FROM	TO
     1	1e+200	0	0.001
     2	8.5579624176	0	0.001
     3	1e+200	0	0.001
     4	1e+200	0	0.001

Measurement: vc2_run2
  step	AVG(if(run==2, V(Vc2), 1/0))	FROM	TO
     1	1e+200	0	0.001
     2	3.97237563133	0	0.001
     3	1e+200	0	0.001
     4	1e+200	0	0.001

Measurement: vod_run2
  step	AVG(if(run==2, (V(Vc1) - V(Vc2)), 1/0))	FROM	TO
     1	1e+200	0	0.001
     2	4.58558678627	0	0.001
     3	1e+200	0	0.001
     4	1e+200	0	0.001

Measurement: vc1_run3
  step	AVG(if(run==3, V(Vc1), 1/0))	FROM	TO
     1	1e+200	0	0.001
     2	1e+200	0	0.001
     3	6.26625728607	0	0.001
     4	1e+200	0	0.001

Measurement: vc2_run3
  step	AVG(if(run==3, V(Vc2), 1/0))	FROM	TO
     1	1e+200	0	0.001
     2	1e+200	0	0.001
     3	6.26792097092	0	0.001
     4	1e+200	0	0.001

Measurement: vod_run3
  step	AVG(if(run==3, (V(Vc1) - V(Vc2)), 1/0))	FROM	TO
     1	1e+200	0	0.001
     2	1e+200	0	0.001
     3	-0.00166368484497	0	0.001
     4	1e+200	0	0.001

Measurement: vc1_run4
  step	AVG(if(run==4, V(Vc1), 1/0))	FROM	TO
     1	1e+200	0	0.001
     2	1e+200	0	0.001
     3	1e+200	0	0.001
     4	6.26807308197	0	0.001

Measurement: vc2_run4
  step	AVG(if(run==4, V(Vc2), 1/0))	FROM	TO
     1	1e+200	0	0.001
     2	1e+200	0	0.001
     3	1e+200	0	0.001
     4	6.26643896103	0	0.001

Measurement: vod_run4
  step	AVG(if(run==4, (V(Vc1) - V(Vc2)), 1/0))	FROM	TO
     1	1e+200	0	0.001
     2	1e+200	0	0.001
     3	1e+200	0	0.001
     4	0.00163412094116	0	0.001

Measurement: ad1_p0v1
  step	Vc1_run1 / 0.1
     1	39.7580289841
     2	1e+200
     3	1e+200
     4	1e+200

Measurement: ad2_p0v1
  step	Vc2_run1 / 0.1
     1	85.6344509125
     2	1e+200
     3	1e+200
     4	1e+200

Measurement: add_p0v1
  step	Vod_run1 / 0.1
     1	-45.8764219284
     2	1e+200
     3	1e+200
     4	1e+200

Measurement: ad1_n0v1
  step	Vc1_run2 / -0.1
     1	-1e+200
     2	-85.579624176
     3	-1e+200
     4	-1e+200

Measurement: ad2_n0v1
  step	Vc2_run2 / -0.1
     1	-1e+200
     2	-39.7237563133
     3	-1e+200
     4	-1e+200

Measurement: add_n0v1
  step	Vod_run2 / -0.1
     1	-1e+200
     2	-45.8558678627
     3	-1e+200
     4	-1e+200

Measurement: ac1_p0v1
  step	Vc1_run3 / 0.1
     1	1e+200
     2	1e+200
     3	62.6625728607
     4	1e+200

Measurement: ac2_p0v1
  step	Vc2_run3 / 0.1
     1	1e+200
     2	1e+200
     3	62.6792097092
     4	1e+200

Measurement: acd_p0v1
  step	Vod_run3 / 0.1
     1	1e+200
     2	1e+200
     3	-0.0166368484497
     4	1e+200

Measurement: ac1_n0v1
  step	Vc1_run4 / -0.1
     1	-1e+200
     2	-1e+200
     3	-1e+200
     4	-62.6807308197

Measurement: ac2_n0v1
  step	Vc2_run4 / -0.1
     1	-1e+200
     2	-1e+200
     3	-1e+200
     4	-62.6643896103

Measurement: acd_n0v1
  step	Vod_run4 / -0.1
     1	-1e+200
     2	-1e+200
     3	-1e+200
     4	-0.0163412094116

Measurement: ad_avg
  step	(Add_p0V1 + Add_n0V1) / 2
     1	-5e+199
     2	5e+199
     3	0
     4	0

Measurement: ac_avg
  step	(Acd_p0V1 + Acd_n0V1) / 2
     1	0
     2	0
     3	-5e+199
     4	5e+199

Measurement: cmrr_db
  step	20*log10(abs(Ad_avg / Ac_avg))
     1	4000
     2	4000
     3	-2007.52506085
     4	-2007.52506085
