LTspice 24.1.9 for Windows
Circuit: G:\LTspiceFile\ElectronicTechnologyExperiments\3\DifferentialAmplifierCircuit_single_sin_input.net
Start Time: Sun Oct 26 15:47:58 2025
solver = Normal
Maximum thread count: 12
tnom = 27
temp = 27
method = trap
Direct Newton iteration for .op point succeeded.
Total elapsed time: 0.277 seconds.

Files loaded:
G:\LTspiceFile\ElectronicTechnologyExperiments\3\DifferentialAmplifierCircuit_single_sin_input.net
C:\Users\34261\AppData\Local\LTspice\lib\cmp\standard.bjt
C:\Users\34261\AppData\Local\LTspice\lib\sub\potentiometer.lib

vc1_out: PP(V(Vc1)/2/sqrt(2))=1.1416519161 FROM 0 TO 0.1
vc2_out: PP(V(Vc2)/2/sqrt(2))=1.14384018048 FROM 0 TO 0.1
vd_out: PP(V(Vc1)-V(Vc2))/2/sqrt(2)=2.28549209658 FROM 0 TO 0.1
