LTspice 24.1.9 for Windows
Circuit: E:\LTspiceFile\ElectronicTechnologyExperiments\3\DifferentialAmplifierCircuit_single_input.net
Start Time: Mon Oct 27 10:59:17 2025
solver = Normal
Maximum thread count: 20
tnom = 27
temp = 27
method = trap
Direct Newton iteration for .op point succeeded.
.step vin=-0.1
.step vin=0.1
Total elapsed time: 0.123 seconds.

Files loaded:
E:\LTspiceFile\ElectronicTechnologyExperiments\3\DifferentialAmplifierCircuit_single_input.net
C:\Users\34261\AppData\Local\LTspice\lib\cmp\standard.bjt
C:\Users\34261\AppData\Local\LTspice\lib\sub\potentiometer.lib


Measurement: vc1_out
  step	AVG(V(Vc1))	FROM	TO
     1	8.55844497681	0	0.1
     2	3.97540616989	0	0.1

Measurement: vc2_out
  step	AVG(V(Vc2))	FROM	TO
     1	3.97197294235	0	0.1
     2	8.56375694275	0	0.1

Measurement: vd_out
  step	AVG(V(Vc1)-V(Vc2))	FROM	TO
     1	4.58647203445	0	0.1
     2	-4.58835077286	0	0.1
