LTspice 24.1.9 for Windows
Circuit: G:\LTspiceFile\ElectronicTechnologyExperiments\3\DifferentialAmplifierCircuit.net
Start Time: Sun Oct 26 15:11:00 2025
solver = Normal
Maximum thread count: 12
tnom = 27
temp = 27
method = trap
Direct Newton iteration for .op point succeeded.
Total elapsed time: 7.387 seconds.

Files loaded:
G:\LTspiceFile\ElectronicTechnologyExperiments\3\DifferentialAmplifierCircuit.net
C:\Users\34261\AppData\Local\LTspice\lib\cmp\standard.bjt
C:\Users\34261\AppData\Local\LTspice\lib\sub\potentiometer.lib

target_wiper: WiperVal=0.519499278546 at 0.519499278546
vc1_bal: V(Vc1)=6.26717254493 at 0.519499278546
ve1_bal: V(Ve1)=-0.639344515543 at 0.519499278546
vc2_bal: V(Vc2)=6.26717254493 at 0.519499278546
ve2_bal: V(Ve2)=-0.632074740247 at 0.519499278546
vc3_bal: V(Vc3)=-0.730674308796 at 0.519499278546
vb3_bal: V(Vb3)=-7.87858867645 at 0.519499278546
ve3_bal: V(Ve3)=-8.53581905365 at 0.519499278546
