LTspice 24.1.9 for Windows
Circuit: G:\LTspiceFile\ElectronicTechnologyExperiments\3\DifferentialAmplifierCircuit_dif_com_input.net
Start Time: Sun Oct 26 16:03:40 2025
solver = Normal
Maximum thread count: 12
tnom = 27
temp = 27
method = trap
Direct Newton iteration for .op point succeeded.
.step run=1
.step run=2
.step run=3
.step run=4
Total elapsed time: 0.788 seconds.

Files loaded:
G:\LTspiceFile\ElectronicTechnologyExperiments\3\DifferentialAmplifierCircuit_dif_com_input.net
C:\Users\34261\AppData\Local\LTspice\lib\cmp\standard.bjt
C:\Users\34261\AppData\Local\LTspice\lib\sub\potentiometer.lib


Measurement: vc1_run1
  step	AVG(V(Vc1))	FROM	TO
     1	3.97580289841	0	0.001
     2	8.5579624176	0	0.001
     3	6.26625728607	0	0.001
     4	6.26807308197	0	0.001

Measurement: vc2_run1
  step	AVG(V(Vc2))	FROM	TO
     1	8.56344509125	0	0.001
     2	3.97237563133	0	0.001
     3	6.26792097092	0	0.001
     4	6.26643896103	0	0.001

Measurement: vod_run1
  step	AVG(V(Vc1) - V(Vc2))	FROM	TO
     1	-4.58764219284	0	0.001
     2	4.58558678627	0	0.001
     3	-0.00166368484497	0	0.001
     4	0.00163412094116	0	0.001
