LTspice 24.1.9 for Windows
Circuit: E:\LTspiceFile\ElectronicTechnologyExperiments\3\DifferentialAmplifierCircuit_single_sin_input.net
Start Time: Mon Oct 27 11:05:34 2025
solver = Normal
Maximum thread count: 20
tnom = 27
temp = 27
method = trap
Direct Newton iteration for .op point succeeded.
Total elapsed time: 0.140 seconds.

Files loaded:
E:\LTspiceFile\ElectronicTechnologyExperiments\3\DifferentialAmplifierCircuit_single_sin_input.net
C:\Users\34261\AppData\Local\LTspice\lib\cmp\standard.bjt
C:\Users\34261\AppData\Local\LTspice\lib\sub\potentiometer.lib

vc1_out: PP(V(Vc1)/2/sqrt(2))=1.1416519161 FROM 0 TO 0.1
vc2_out: PP(V(Vc2)/2/sqrt(2))=1.14384018048 FROM 0 TO 0.1
vd_out: PP(V(Vc1)-V(Vc2))/2/sqrt(2)=2.28549209658 FROM 0 TO 0.1
