LTspice 24.1.9 for Windows
Circuit: G:\LTspiceFile\ElectronicTechnologyExperiments\3\InstrumentationAmplifierCircuit.net
Start Time: Sun Oct 26 16:33:41 2025
solver = Normal
Maximum thread count: 12
tnom = 27
temp = 27
method = trap
Direct Newton iteration for .op point succeeded.
.step rg=200
.step rg=1000
.step rg=2000
.step rg=10000
.step rg=20000
Total elapsed time: 2.298 seconds.

Files loaded:
G:\LTspiceFile\ElectronicTechnologyExperiments\3\InstrumentationAmplifierCircuit.net
C:\Users\34261\AppData\Local\LTspice\lib\sub\ADA4077.lib


Measurement: va1_val
  step	AVG(V(VA1))	FROM	TO
     1	5.16501404491e-06	0	0.1
     2	5.16489853908e-06	0	0.1
     3	5.16488444191e-06	0	0.1
     4	5.16487261848e-06	0	0.1
     5	5.16487125424e-06	0	0.1

Measurement: va2_val
  step	AVG(V(VA2))	FROM	TO
     1	5.1647230066e-06	0	0.1
     2	5.16483828505e-06	0	0.1
     3	5.1648526096e-06	0	0.1
     4	5.16486397828e-06	0	0.1
     5	5.16486579727e-06	0	0.1

Measurement: vo_val
  step	AVG(V(Vo))	FROM	TO
     1	2.02090068342e-05	0	0.1
     2	2.02092378458e-05	0	0.1
     3	2.02092669497e-05	0	0.1
     4	2.02092887776e-05	0	0.1
     5	2.02092924155e-05	0	0.1
