LTspice 24.1.9 for Windows
Circuit: E:\LTspiceFile\ElectronicTechnologyExperiments\3\InstrumentationAmplifierCircuit_single_input.net
Start Time: Mon Oct 27 11:31:26 2025
solver = Normal
Maximum thread count: 20
tnom = 27
temp = 27
method = trap
Direct Newton iteration for .op point succeeded.
.step vin=-0.1
.step vin=0.1
Total elapsed time: 0.358 seconds.

Files loaded:
E:\LTspiceFile\ElectronicTechnologyExperiments\3\InstrumentationAmplifierCircuit_single_input.net
C:\Users\34261\AppData\Local\LTspice\lib\sub\ADA4077.lib


Measurement: va1_out
  step	AVG(V(VA1))	FROM	TO
     1	-0.599991858006	0	0.1
     2	0.600002169609	0	0.1

Measurement: va2_out
  step	AVG(V(VA2))	FROM	TO
     1	0.500002324581	0	0.1
     2	-0.499992012978	0	0.1

Measurement: vo_out
  step	AVG(V(Vo))	FROM	TO
     1	1.10001349449	0	0.1
     2	-1.09997308254	0	0.1
