LTspice 24.1.9 for Windows
Circuit: G:\LTspiceFile\ElectronicTechnologyExperiments\3\InstrumentationAmplifierCircuit_single_sin_input.net
Start Time: Sun Oct 26 16:47:30 2025
solver = Normal
Maximum thread count: 12
tnom = 27
temp = 27
method = trap
Direct Newton iteration for .op point succeeded.
Total elapsed time: 48.570 seconds.

Files loaded:
G:\LTspiceFile\ElectronicTechnologyExperiments\3\InstrumentationAmplifierCircuit_single_sin_input.net
C:\Users\34261\AppData\Local\LTspice\lib\sub\ADA4077.lib

va1_out: PP(V(VA1)/2/sqrt(2))=0.296978021573 FROM 0 TO 0.1
va2_out: PP(V(VA2)/2/sqrt(2))=0.247480720535 FROM 0 TO 0.1
vo_out: PP(V(Vo)/2/sqrt(2))=0.544457498777 FROM 0 TO 0.1
