LTspice 24.1.9 for Windows
Circuit: G:\LTspiceFile\ElectronicTechnologyExperiments\Draft2.net
Start Time: Fri Sep 26 10:11:40 2025
solver = Normal
Maximum thread count: 12
tnom = 27
temp = 27
method = trap
Direct Newton iteration for .op point succeeded.
Total elapsed time: 0.127 seconds.

Files loaded:
G:\LTspiceFile\ElectronicTechnologyExperiments\Draft2.net
C:\Users\34261\AppData\Local\LTspice\lib\cmp\standard.bjt

