LTspice 24.1.9 for Windows
Circuit: G:\LTspiceFile\ElectronicTechnologyExperiments\Draft1.net
Start Time: Fri Sep 26 10:00:04 2025
solver = Normal
Maximum thread count: 12
tnom = 27
temp = 27
method = trap
Direct Newton iteration for .op point succeeded.
Total elapsed time: 0.116 seconds.

Files loaded:
G:\LTspiceFile\ElectronicTechnologyExperiments\Draft1.net
C:\Users\34261\AppData\Local\LTspice\lib\cmp\standard.bjt

