LTspice 24.1.9 for Windows
Circuit: G:\LTspiceFile\ElectronicTechnologyExperiments\Experiment1_NPN_Ib.net
Start Time: Sun Sep 14 19:51:24 2025
solver = Normal
Maximum thread count: 12
tnom = 27
temp = 27
method = trap
.OP point found by inspection.
.step I1=0 
.step I1=5e-06 
.step I1=1e-05 
.step I1=1.5e-05 
.step I1=2e-05 
Total elapsed time: 0.135 seconds.

Files loaded:
G:\LTspiceFile\ElectronicTechnologyExperiments\Experiment1_NPN_Ib.net
C:\Users\34261\AppData\Local\LTspice\lib\cmp\standard.bjt

