LTspice 24.1.9 for Windows
Circuit: G:\LTspiceFile\ElectronicTechnologyExperiments\Experiment2.net
Start Time: Fri Sep 26 09:59:21 2025
solver = Normal
Maximum thread count: 12
tnom = 27
temp = 27
method = trap
Direct Newton iteration for .op point succeeded.
.step rp=28000
.step rp=28500
.step rp=29000
.step rp=29500
.step rp=30000
Total elapsed time: 0.497 seconds.

Files loaded:
G:\LTspiceFile\ElectronicTechnologyExperiments\Experiment2.net
C:\Users\34261\AppData\Local\LTspice\lib\cmp\standard.bjt

