LTspice 24.1.9 for Windows
Circuit: E:\LTspiceFile\ElectronicTechnologyExperiments\Experiment2_1_1.net
Start Time: Sat Oct  4 19:39:02 2025
solver = Normal
Maximum thread count: 20
tnom = 27
temp = 27
method = trap
Direct Newton iteration for .op point succeeded.
.step rp=14000
.step rp=14500
.step rp=15000
Total elapsed time: 0.153 seconds.

Files loaded:
E:\LTspiceFile\ElectronicTechnologyExperiments\Experiment2_1_1.net
C:\Users\34261\AppData\Local\LTspice\lib\cmp\standard.bjt

