LTspice 24.1.9 for Windows
Circuit: E:\LTspiceFile\ElectronicTechnologyExperiments\Experiment2_1_2.net
Start Time: Sat Oct  4 19:43:08 2025
solver = Normal
Maximum thread count: 20
tnom = 27
temp = 27
method = trap
Direct Newton iteration for .op point succeeded.
Total elapsed time: 0.050 seconds.

Files loaded:
E:\LTspiceFile\ElectronicTechnologyExperiments\Experiment2_1_2.net
C:\Users\34261\AppData\Local\LTspice\lib\cmp\standard.bjt

