LTspice 24.1.9 for Windows
Circuit: E:\LTspiceFile\ElectronicTechnologyExperiments\Experiment2_2_1.net
Start Time: Sat Oct  4 20:00:26 2025
solver = Normal
Maximum thread count: 20
tnom = 27
temp = 27
method = trap
Direct Newton iteration for .op point succeeded.
Total elapsed time: 0.071 seconds.

Files loaded:
E:\LTspiceFile\ElectronicTechnologyExperiments\Experiment2_2_1.net
C:\Users\34261\AppData\Local\LTspice\lib\cmp\standard.bjt

