LTspice 24.1.9 for Windows
Circuit: E:\LTspiceFile\ElectronicTechnologyExperiments\Experiment3_3_1.net
Start Time: Sun Oct  5 11:26:02 2025
solver = Normal
Maximum thread count: 20
tnom = 27
temp = 27
method = trap
Direct Newton iteration for .op point succeeded.
Total elapsed time: 0.074 seconds.

Files loaded:
E:\LTspiceFile\ElectronicTechnologyExperiments\Experiment3_3_1.net
C:\Users\34261\AppData\Local\LTspice\lib\cmp\standard.bjt

virms: RMS(V(Vi))=0.00137107434933 FROM 100 TO 100000000
vorms: RMS(V(Vo))=0.0189070524537 FROM 100 TO 100000000
