LTspice 24.1.9 for Windows
Circuit: G:\LTspiceFile\ElectronicTechnologyExperiments\2\2\RCSineWaveOscillator2.net
Start Time: Sun Oct 12 19:16:12 2025
solver = Normal
Maximum thread count: 12
tnom = 27
temp = 27
method = trap
Direct Newton iteration for .op point succeeded.
Total elapsed time: 0.113 seconds.

Files loaded:
G:\LTspiceFile\ElectronicTechnologyExperiments\2\2\RCSineWaveOscillator2.net
C:\Users\34261\AppData\Local\LTspice\lib\sub\ADI1.lib

